**$ENCRYPTED_LIB
**$INTERFACE
* PSpice Model Editor - Version 16.2.0
*$
* LM1117_N_1P8
*****************************************************************************
* (C) Copyright 2015 Texas Instruments Incorporated. All rights reserved.
*****************************************************************************
** This model is designed as an aid for customers of Texas Instruments.
** TI and its licensors and suppliers make no warranties, either expressed
** or implied, with respect to this model, including the warranties of
** merchantability or fitness for a particular purpose. The model is
** provided solely on an "as is" basis. The entire risk as to its quality
** and performance is with the customer.
*****************************************************************************
*
** Released by: WEBENCH Design Center, Texas Instruments Inc.
* Part: LM1117_N_1P8
* Date: 17MAR2015 
* Model Type: Transient
* Simulator: PSpice
* Simulator Version: 16.2.0.p001
* EVM Order Number: 
* EVM User's Guide: 
* Data sheet: SNOS412M-FEBRUARY 2000-REVISED MARCH 2013
*
* Model Version: Final 1.1
*
*****************************************************************************
*
* Updates:
*
* Final 1.00
* Release to Web
*
*****************************************************************************
.SUBCKT LM1117_N_1P8_TRANS IN OUT GND_0 GND_1
$CDNENCSTART
eee8c5c7a2bc4b01f045f303678664e7916da0bae22e8cb0bba041dd67c69ce448ea70148a9ac1670c8926c1ac5057c8ccfcd77bf87ca9dca4601328b7a42aae
2cfd781695004e384c0789b4cee751a2ed9d4c76600c0a1d3c91a6fb4dbe7becb726af437d0275701fededf07b87c8c58aff843b323862a21d62120cf5d725ec
0d8fbf884b714d3ad851b8945f34876c7895fe87ef7ddb6531adc10f98c05a47c4791e449ceddbda7916299d2a5763c8cd3e6c68bc5cd7c3e139222f9d555590
62de40c9486cbee46d7bbdd38dd2ebdc4b8df7796d1c0d69f2d683015446d8fede687f7b01fb89997123a3767e0b5ecaa33f9b0796baf77f9b6f8c0fdf57ed7e
705d459f50f7a08caf1922b60cad7ad54cb34a6f6f4f982a83463dd640f012e500d3e0b087c7374438117b05f94344cecd1709f0cc583c6fa9e270e86f32575a
a5d158a0fc11634f706b807646b80371c9da099ce416dcb0d32ee1f27e0d56e3644126c9831a96bd1009c3a6e024b185720d826b79aa60e91e306e01dffb8a89
e9f419af62bfe95ecc0121b5e20e2076c72e677679789a89508e95ff7173491c9f7df7e1d8537137763d73e9d3a8d5e0790072b4d0c3967f3fb522bf88cbafdf
0a74212461f65cb9444fee9bc6fdbca6cb82e1066e82af78bf1ee911780421dd7e127851d152871821df5806382c8ba09bcc58f73251426cfb7f2c4e44c61ade
bc8ee2299b22080342a4a88b2b0b4056153dc300848c1f979a22c86f59dd1c377895fe87ef7ddb6531adc10f98c05a47c4791e449ceddbda172b29928335caaf
22cc75479b3d980a706b807646b80371c9da099ce416dcb0978b3e87ef4193663a8d0e744922d2c25a4b0aa49b1e7f91949e0297405d1edc3fb522bf88cbafdf
b67df0d3ab862a12706b807646b80371b0f0ecb48418828296e3510eaa625fc405425b5d0f1c0581b653ebcaf39685d385d5cb7addec6df79ad5c177941ff91f
82d2e7992b7a58af706b807646b803718e8987d1380259f146b139c13fbcbda28d853cf44c9c86a53ddfb815af448b543c858dbd7e6e5120e4e72beed32b1f99
5911b2e9db27761795d7fcca0b5012cc38117b05f94344cecd1709f0cc583c6f0ee5ad05d0e969ef20fc1dfd28e533d0a0d09f4f2a399f4ec7a6383f6213ddeb
bbf0a766f49a242c2637e9cac2aa5cea2cecad1ebf804c4bf467148f06ca8e437e127851d152871821df5806382c8ba09bcc58f73251426cfb7f2c4e44c61ade
6dcfb6d5e8929f04706b807646b8037110fe20894a82e47899b87aceb23e86970c7e012bffe34f9d2fd4a791317eac017895fe87ef7ddb65e8a14a82cb729118
db74a41ea7af07ba29c75dcdf45ee2c982822b24182a7acbeeefa89c237333af7e4255fd2ca31d493ac2dda20e7f9646d510bbec7d79debfd70e98ac15c2b24c
6dcc2999c2dfe559706b807646b80371fe54d1a87dc9d884a52259981701e27403b806226a6a646e38117b05f94344cecd1709f0cc583c6fa9e270e86f32575a
a3ce589fda26bc39706b807646b8037163d1ebe60620f47a8ff84965ac0438988f1d0e3b3309a749042f0c0c78bb0debb653ebcaf39685d36ab501a51dc6eb6d
69ff18044fae7c89706b807646b803713fcf69658ff8e28c8e9838ffdcfd56192f146b584808f9894f197b475ff4992d0dd887054071c382fcfc343327e73ba6
1e36f10390632b7b706b807646b8037188f237f17078bb3e5828604f05b2247e7f0d6b2739374f9a146c7f47970ca091ac6a06391c26b0c6a2c852a1a470e0c8
24fdfd9bb2e10b074f197b475ff4992d0dd887054071c382c1603a7924cddc88cdb924439d62931aefcb42abe40dfb413f5c11567334dd40ecc955204f2ed8de
0be1bd08545f4ec3706b807646b8037181aec34a846648c9eeca062ffe77a6597895fe87ef7ddb6531adc10f98c05a47c4791e449ceddbda172b29928335caaf
f28257b2a3730294706b807646b80371b0f0ecb484188282a05a511d6e8ab45d05425b5d0f1c0581b653ebcaf39685d385d5cb7addec6df79ad5c177941ff91f
e9f419af62bfe95ec12e63f53fc8b6c78fa97f4081b734eb6f7b98e75b088b137208a85e1aefd30a9787575412a859b18956bf6d18792dd4cbd5ee2fe0f73abb
6589144859c4b12fb5f1c17ee79563037e127851d152871821df5806382c8ba09bcc58f73251426caea0ef6c1e8131367b734f5008c5182891078dbad6fd16cc
e9f419af62bfe95ebc27f931268b4061c72e677679789a8974763235dc81d091f182b98fc749cfc2ab6a91e907f651e2fe9c0a56ac1647d19d6bedf9d0034ac8
5d078000650a8fa51f0ac298a1f63b185a6dca646d389ded58d5dd88a7a18d44ed857e222a29377b21b184c46ed04f29ea393c3726761607008e944863adc960
54653036f112a7e5706b807646b803719635ee95ea00d51c639842384662cfe1c2f5e47a2422c11462d766f77596a54b7895fe87ef7ddb65e8a14a82cb729118
c9df73872fc60450f07ff34d4903e7217c323151481bbd5f9251e6e4043c2affb7bd3d55c91f8c7252850baeb115bec8ed857e222a29377b777d1e51c114745f
86ad213343ec82a90abfc569c2f15564a2f13e75043d11f5b2e778dce424b29862d766f77596a54b7895fe87ef7ddb6531adc10f98c05a47a064d78ceb6713e2
717cdf892ff6b6ffd811871cc3622e4a53e7b7d7fd04c659ed857e222a29377b21b184c46ed04f29ea393c3726761607d4adfb9c15bde8ebc79d899078f684d1
615a28c46d723740969deb1afc4fde2520f46c789c966f5a0a0ec22218277ba4bf1ee911780421dd7e127851d152871821df5806382c8ba0a2c7d5d71568da1d
e83d563d614d5ce9a60fd3951de4fe94df8860232cb067ea602d705c8a66d54700d3e0b087c7374438117b05f94344cecd1709f0cc583c6fa9e270e86f32575a
c43ca65fb3926f3b26c880f485e2ca34781a86ebe893f7fdbfd36ceb5c1ed9c038117b05f94344cecd1709f0cc583c6f0ee5ad05d0e969ef330e8f39313c2b82
b0eb42ca922cce592fbfcc2b872ff946a30c69f2ad0860c8ce5ec34e6f8ad1ca4a00a148cfaed34189a2a12c79e79f3563304b2fd86ece55c0bcdf6980feb0e3
37080f586b2fbb9fe73070a45f1d549c4f197b475ff4992d0dd887054071c382c1603a7924cddc88cdb924439d62931aefcb42abe40dfb419718009bdba3dc41
afe317ae10e98155cfa2b28727d5c31dedf2d27ea3a450b4dad4b7980b83d60cd510bbec7d79debf418916c6faafcecb6edf467820db6bac81326518b4e7757a
93d3808648446fd760c210771409cb2e2e9cce4f7aebd6f1b531fdb8889633b4bf1ee911780421dd7e127851d152871821df5806382c8ba0a2c7d5d71568da1d
9afa1f10a7f457ea7674bbc8caf0d23de7a7ac7d39c4b64faed41d0d06901c485453634dcbb7e97a7895fe87ef7ddb6531adc10f98c05a47a064d78ceb6713e2
ddf70eae3b592905a60fd3951de4fe94b1bccc3dfdf911011725dcf961235b76bf1ee911780421dd7e127851d152871821df5806382c8ba0a2c7d5d71568da1d
b052355e65d40bda154842d727f7b4e206c9a94cbad89ffe0ef85a4e8dc329a1a25b1652d891a374c3a735a548beb6ccb653ebcaf39685d36ab501a51dc6eb6d
e0bee0f3fadd672460c210771409cb2e2e9cce4f7aebd6f1f24bf58ddadd36c75fbceec05a2e4b3f7d7f15953a32e2dced857e222a29377b777d1e51c114745f
394197bedeb77a717674bbc8caf0d23d2cbfd1e085a00472904dec32dc3693583b79d1cd0e073c324f197b475ff4992d0dd887054071c382fcfc343327e73ba6
04f5acd939422ec097705d9322a214a7dbeda22f19a2de8ffb817bc487f1b3c838dc236efc714947af399d32d282acb6b653ebcaf39685d36ab501a51dc6eb6d
b90e0c5fe970b38760c210771409cb2e92fe7f16cd97a385f24bf58ddadd36c74b84da9a526f50928996186a7016e01159423a129c2540f03d85532cb4d26df7
7aff1ed17501806226c880f485e2ca34312e190fa5dac4d7b4b1669b5c60487eb653ebcaf39685d385d5cb7addec6df770ec20f5c40079caac2e854d9ba9b2e9
90124f6cbed1c8c0706b807646b80371dcf3cb9f8e545a35f6bdaa4da8832bb838117b05f94344cecd1709f0cc583c6f0ee5ad05d0e969ef330e8f39313c2b82
$CDNENCFINISH
.ENDS LM1117_N_1P8_TRANS
*$
****************************
.subckt LM1117_N_1P8_F1 1 2 3 4  
$CDNENCSTART
eee8c5c7a2bc4b01f045f303678664e7916da0bae22e8cb0bba041dd67c69ce448ea70148a9ac1670c8926c1ac5057c8ccfcd77bf87ca9dca4601328b7a42aae
ae601cf82fbefc0c31820e631d1d1d74872d6da6e74e75eeed857e222a29377b21b184c46ed04f29ea393c3726761607d4adfb9c15bde8ebc79d899078f684d1
969b68e4450fa8bd6f31076d2b37e96b3a7bc5327c69eeaf38117b05f94344cecd1709f0cc583c6f0ee5ad05d0e969ef20fc1dfd28e533d07e9c18fce7e4c576
$CDNENCFINISH
.ends LM1117_N_1P8_F1
*$
.subckt LM1117_N_1P8_S2 1 2 3 4  
$CDNENCSTART
eee8c5c7a2bc4b01f045f303678664e7916da0bae22e8cb0bba041dd67c69ce448ea70148a9ac1670c8926c1ac5057c8ccfcd77bf87ca9dca4601328b7a42aae
c21144fd15b2c61331820e631d1d1d7423f284e2e346bfb8ed857e222a29377b21b184c46ed04f29ea393c3726761607d4adfb9c15bde8ebc79d899078f684d1
e07b7a6acd4bf43c6f31076d2b37e96baa35006d782c6ce938117b05f94344cecd1709f0cc583c6f0ee5ad05d0e969ef20fc1dfd28e533d07e9c18fce7e4c576
1e7e75f62a07f7b1bbcb463bf6330e44eff574bcdcb677aa0ffb76e2ddf4497b726b14fb793f286a088a7a198d4d42bbbedd4f0e0429e49f7c4bbf5b95fbb5a2
$CDNENCFINISH
.ends LM1117_N_1P8_S2
*$
*****$
.subckt TLV733285P_S1 1 2 3 4  
$CDNENCSTART
eee8c5c7a2bc4b01f045f303678664e7916da0bae22e8cb0bba041dd67c69ce448ea70148a9ac1670c8926c1ac5057c8ccfcd77bf87ca9dca4601328b7a42aae
44f117741689d59131820e631d1d1d749e35700c7913e939ed857e222a29377b21b184c46ed04f29ea393c3726761607d4adfb9c15bde8ebc79d899078f684d1
3c76beba9b808c126f31076d2b37e96baa35006d782c6ce938117b05f94344cecd1709f0cc583c6f0ee5ad05d0e969ef20fc1dfd28e533d07e9c18fce7e4c576
1e7e75f62a07f7b1bbcb463bf6330e447b3ba2fd65dbf9050ffb76e2ddf4497b43f4b33956461ad1151dcaf61fbb07e0d42785f4ee26d395dad0398f1ed789fa
$CDNENCFINISH
.ends TLV733285P_S1
*$
.subckt TLV733285P_S2 1 2 3 4  
$CDNENCSTART
eee8c5c7a2bc4b01f045f303678664e7916da0bae22e8cb0bba041dd67c69ce448ea70148a9ac1670c8926c1ac5057c8ccfcd77bf87ca9dca4601328b7a42aae
c21144fd15b2c61331820e631d1d1d7423f284e2e346bfb8ed857e222a29377b21b184c46ed04f29ea393c3726761607d4adfb9c15bde8ebc79d899078f684d1
e07b7a6acd4bf43c6f31076d2b37e96baa35006d782c6ce938117b05f94344cecd1709f0cc583c6f0ee5ad05d0e969ef20fc1dfd28e533d07e9c18fce7e4c576
1e7e75f62a07f7b1bbcb463bf6330e44eff574bcdcb677aa0ffb76e2ddf4497ba7cffeee717e58d05d0d2970852fcd9175a72dcf08b05ada72e8a5ba6eb8ba83
$CDNENCFINISH
.ends TLV733285P_S2
*$
.SUBCKT COMPHYS_BASIC_GEN INP INM HYS OUT PARAMS: VDD=1 VSS=0 VTHRESH=0.5	
$CDNENCSTART
eee8c5c7a2bc4b01f045f303678664e7916da0bae22e8cb0bba041dd67c69ce448ea70148a9ac1670c8926c1ac5057c8ccfcd77bf87ca9dca4601328b7a42aae
9132b7121104d4358be44c41ab888f41b6e3a1568843d867ed857e222a29377b21b184c46ed04f29ea393c3726761607d4adfb9c15bde8ebc79d899078f684d1
70d49a25931fcad5af5f0f227a33dfc56b574213c15e8d8904d73209bd6cb354e07469d76c73f504727902e71a3e75d8bb77e20fe987edd8d38aff4e12555a5d
d1579de13894cc53749d13634498f34b2814ec203481f38f6485690991963efc688dc2cfc32ec3a9609956094a2f05290f82827fc36822f0d7acbf21c6552dd3
c985c90e830fff9457e2c5aa808513707e127851d152871821df5806382c8ba09bcc58f73251426caea0ef6c1e8131367b734f5008c5182891078dbad6fd16cc
1fdb31c906bbcd7763285b29082243911009c3a6e024b185720d826b79aa60e976d1594e4eb7fd5d246e3c567250b58af53bcb977332f3058e3dbd7fedb2c83f
13142c038a62aa150aa66cfdd7abddd77895fe87ef7ddb6531adc10f98c05a47c4791e449ceddbda7916299d2a5763c8cd3e6c68bc5cd7c3e139222f9d555590
$CDNENCFINISH
.ENDS COMPHYS_BASIC_GEN
*$
.SUBCKT D_D1 1 2
$CDNENCSTART
eee8c5c7a2bc4b01f045f303678664e7916da0bae22e8cb0bba041dd67c69ce448ea70148a9ac1670c8926c1ac5057c8ccfcd77bf87ca9dca4601328b7a42aae
b3390a098a7d87064e46dd92806239d27e127851d152871821df5806382c8ba09bcc58f73251426caea0ef6c1e8131367b734f5008c5182891078dbad6fd16cc
d7072740a938f0e752008c48b90a111404d36cec99b77dc0a7f03d1e581742ea8b798ad314fde7ff78bb0ee6e0e668e4b653ebcaf39685d36ab501a51dc6eb6d
$CDNENCFINISH
.ENDS D_D1
*$
.subckt d_d 1 2
$CDNENCSTART
eee8c5c7a2bc4b01f045f303678664e7916da0bae22e8cb0bba041dd67c69ce448ea70148a9ac1670c8926c1ac5057c8ccfcd77bf87ca9dca4601328b7a42aae
1580a2664af5c9b79ba351c972f8011b1009c3a6e024b185720d826b79aa60e976d1594e4eb7fd5d246e3c567250b58af53bcb977332f3058e3dbd7fedb2c83f
0697746efb67a3a37eef396dcc27bc374f197b475ff4992d0dd887054071c382c1603a7924cddc88cdb924439d62931aefcb42abe40dfb419718009bdba3dc41
f7a854a98d732f8b65b706867a9136e64f197b475ff4992d0dd887054071c382c1603a7924cddc88cdb924439d62931aefcb42abe40dfb419718009bdba3dc41
017be23040227359ed857e222a29377b21b184c46ed04f29ea393c3726761607d4adfb9c15bde8eb4c1db1614f8e4b2f5f51f57f4617b3c1232b077ef159e81f
39c84b0c9f72e0078e024cbd033ee0af4f197b475ff4992d0dd887054071c382c1603a7924cddc88cdb924439d62931aefcb42abe40dfb419718009bdba3dc41
$CDNENCFINISH
.ends d_d
*$
